Version 4
SHEET 1 2424 1264
WIRE -96 -480 -96 -528
WIRE -96 -384 -96 -400
WIRE 80 -384 -96 -384
WIRE -96 -352 -96 -384
WIRE 2272 -288 1536 -288
WIRE 128 -272 32 -272
WIRE -96 -240 -96 -272
WIRE 32 -240 32 -272
WIRE 32 -240 -96 -240
WIRE -96 -208 -96 -240
WIRE 32 -208 32 -240
WIRE 128 -208 32 -208
WIRE 592 -192 528 -192
WIRE 816 -192 592 -192
WIRE 1648 -176 1648 -192
WIRE 816 -160 784 -160
WIRE 1136 -160 880 -160
WIRE 1280 -160 1280 -192
WIRE 1408 -160 1408 -192
WIRE 1536 -160 1536 -288
WIRE 1600 -160 1536 -160
WIRE 2272 -144 1856 -144
WIRE 672 -96 656 -96
WIRE 784 -96 784 -160
WIRE 784 -96 736 -96
WIRE 848 -96 784 -96
WIRE 1008 -96 912 -96
WIRE -96 -80 -96 -128
WIRE 656 -80 656 -96
WIRE 1136 -80 1136 -160
WIRE 1216 -80 1136 -80
WIRE 1536 -80 1536 -160
WIRE 1536 -80 1472 -80
WIRE 1824 -80 1648 -80
WIRE 592 -64 592 -192
WIRE 1824 -48 1824 -80
WIRE 1856 -48 1856 -144
WIRE 1856 -48 1824 -48
WIRE 1952 -48 1856 -48
WIRE 2112 -48 2032 -48
WIRE 2272 -48 2112 -48
WIRE 1824 -16 1824 -48
WIRE 1824 -16 1648 -16
WIRE 2112 0 2112 -48
WIRE 1216 16 1136 16
WIRE 1536 16 1472 16
WIRE 672 48 656 48
WIRE 768 48 736 48
WIRE 800 48 768 48
WIRE 928 48 864 48
WIRE 1008 48 992 48
WIRE 656 64 656 48
WIRE 1536 64 1536 16
WIRE 1600 64 1536 64
WIRE 1648 112 1648 80
WIRE 2112 112 2112 64
WIRE 1280 128 1280 96
WIRE 1408 128 1408 96
WIRE 768 144 768 48
WIRE 816 144 768 144
WIRE 592 176 592 0
WIRE 816 176 592 176
WIRE 992 176 880 176
WIRE 1136 176 1136 16
WIRE 1136 176 1056 176
WIRE -80 192 -80 176
WIRE 1536 192 1536 64
WIRE 2272 192 1536 192
WIRE -80 304 -80 272
WIRE 1888 528 832 528
WIRE 1120 592 1040 592
WIRE 1248 592 1184 592
WIRE 1696 624 1632 624
WIRE 1888 624 1888 528
WIRE 1888 624 1776 624
WIRE 1968 624 1888 624
WIRE 1184 672 1152 672
WIRE 1152 688 1152 672
WIRE 1792 688 1728 688
WIRE 832 704 832 528
WIRE 912 704 832 704
WIRE 1040 704 1040 592
WIRE 1040 704 992 704
WIRE 1120 704 1040 704
WIRE 1728 704 1728 688
WIRE 1792 704 1792 688
WIRE 1968 704 1792 704
WIRE 1248 720 1248 592
WIRE 1248 720 1184 720
WIRE 1328 720 1248 720
WIRE 1488 720 1328 720
WIRE 1632 720 1632 624
WIRE 1632 720 1568 720
WIRE 1696 720 1664 720
WIRE 1120 736 1072 736
WIRE 1888 736 1888 624
WIRE 1888 736 1760 736
WIRE 1632 752 1632 720
WIRE 1696 752 1632 752
WIRE 1152 784 1152 752
WIRE 1072 800 1072 736
WIRE 1664 800 1664 720
WIRE 1728 800 1728 768
WIRE 1760 880 1712 880
WIRE 1872 880 1760 880
WIRE 1984 880 1952 880
WIRE 1712 944 1712 880
WIRE 1328 960 1328 720
WIRE 1376 960 1328 960
WIRE 1472 960 1440 960
WIRE 1680 960 1472 960
WIRE 1984 976 1984 880
WIRE 1984 976 1744 976
WIRE 2032 976 1984 976
WIRE 1680 992 1648 992
WIRE 1472 1008 1472 960
WIRE 1648 1072 1648 992
WIRE 1712 1072 1712 1008
WIRE 1472 1104 1472 1088
FLAG -80 176 VCTRL
IOPIN -80 176 In
FLAG -80 304 0
FLAG -96 -80 0
FLAG -96 -528 0
FLAG 80 -384 VDD
IOPIN 80 -384 In
FLAG 128 -272 VCM
IOPIN 128 -272 In
FLAG 128 -208 VBIAS
IOPIN 128 -208 In
FLAG 656 -80 0
FLAG 656 64 0
FLAG 1280 128 0
FLAG 1408 128 0
FLAG 1280 -192 VDD
IOPIN 1280 -192 In
FLAG 1408 -192 VDD
IOPIN 1408 -192 In
FLAG 1648 112 0
FLAG 1648 -192 VDD
IOPIN 1648 -192 In
FLAG 2112 112 0
FLAG 2272 -48 VOUT
IOPIN 2272 -48 Out
FLAG 2272 -144 VSW
IOPIN 2272 -144 Out
FLAG 2272 -288 GATE_P
IOPIN 2272 -288 Out
FLAG 2272 192 GATE_N
IOPIN 2272 192 Out
FLAG 1008 -96 GATE_N
IOPIN 1008 -96 In
FLAG 1008 48 GATE_P
IOPIN 1008 48 In
FLAG 1712 1072 0
FLAG 2032 976 PWM
IOPIN 2032 976 Out
FLAG 1888 624 Vsq
IOPIN 1888 624 Out
FLAG 1072 800 VCM
IOPIN 1072 800 In
FLAG 1664 800 VCM
IOPIN 1664 800 In
FLAG 1184 672 VDD
IOPIN 1184 672 In
FLAG 1792 688 VDD
IOPIN 1792 688 In
FLAG 1152 784 0
FLAG 1728 800 0
FLAG 1760 880 VDD
IOPIN 1760 880 In
FLAG 528 -192 PWM
IOPIN 528 -192 In
FLAG 1472 1104 VBIAS
IOPIN 1472 1104 In
FLAG 1648 1072 VCTRL
IOPIN 1648 1072 In
DATAFLAG 1328 720 ""
SYMBOL voltage -80 176 R0
WINDOW 123 0 0 Left 0
WINDOW 39 0 0 Left 0
SYMATTR InstName V1
SYMATTR Value 2.5
SYMBOL res -112 -368 R0
SYMATTR InstName R1
SYMATTR Value 1k
SYMBOL res -112 -224 R0
SYMATTR InstName R2
SYMATTR Value 1k
SYMBOL voltage -96 -384 R180
WINDOW 0 24 96 Left 2
WINDOW 3 24 16 Left 2
WINDOW 123 0 0 Left 0
WINDOW 39 0 0 Left 0
SYMATTR InstName V2
SYMATTR Value 5
SYMBOL Digital\\and 848 -240 R0
SYMATTR InstName A1
SYMATTR SpiceLine Vhigh=5 Vlow=0 ref=2.5
SYMBOL Digital\\inv 656 -64 R90
SYMATTR InstName A2
SYMATTR SpiceLine Vhigh=5 Vlow=0 ref=2.5
SYMBOL Digital\\and 848 96 R0
SYMATTR InstName A3
SYMATTR SpiceLine Vhigh=5 Vlow=0 ref=2.5
SYMBOL cap 736 -112 R90
WINDOW 0 0 32 VBottom 2
WINDOW 3 32 32 VTop 2
SYMATTR InstName C1
SYMATTR Value 1n
SYMBOL cap 736 32 R90
WINDOW 0 0 32 VBottom 2
WINDOW 3 32 32 VTop 2
SYMATTR InstName C2
SYMATTR Value 1n
SYMBOL Digital\\inv 912 -32 R180
SYMATTR InstName A4
SYMATTR SpiceLine Vhigh=5 Vlow=0 ref=2.5
SYMBOL Digital\\inv 864 112 R180
SYMATTR InstName A5
SYMATTR SpiceLine Vhigh=5 Vlow=0 ref=2.5
SYMBOL Digital\\inv 992 112 R180
SYMATTR InstName A6
SYMATTR SpiceLine Vhigh=5 Vlow=0 ref=2.5
SYMBOL Digital\\inv 992 112 R0
SYMATTR InstName A7
SYMATTR SpiceLine Vhigh=5 Vlow=0 ref=2.5
SYMBOL PowerProducts\\LTC1693-1 1344 -32 R0
SYMATTR InstName U1
SYMBOL nmos 1600 -16 R0
SYMATTR InstName M1
SYMATTR Value Si7336ADP
SYMBOL pmos 1600 -80 M180
SYMATTR InstName M2
SYMATTR Value AO6407
SYMBOL ind 1936 -32 R270
WINDOW 0 32 56 VTop 2
WINDOW 3 5 56 VBottom 2
SYMATTR InstName L1
SYMATTR Value 100µ
SYMBOL cap 2096 0 R0
SYMATTR InstName C3
SYMATTR Value 4700µ
SYMBOL Comparators\\LTC6752 1728 672 R0
WINDOW 0 16 32 Left 1
SYMATTR InstName ST1
SYMBOL res 1792 608 R90
WINDOW 0 0 56 VBottom 0
WINDOW 3 32 56 VTop 2
SYMATTR InstName r3
SYMATTR Value {R3}
SYMBOL res 1584 704 R90
WINDOW 0 0 56 VBottom 0
WINDOW 3 32 56 VTop 2
SYMATTR InstName r4
SYMATTR Value {R2}
SYMBOL res 1008 688 R90
WINDOW 0 0 56 VBottom 0
WINDOW 3 32 56 VTop 2
SYMATTR InstName r5
SYMATTR Value {R1}
SYMBOL cap 1184 576 R90
WINDOW 0 0 32 VBottom 0
WINDOW 3 32 32 VTop 2
SYMATTR InstName c4
SYMATTR Value 0.1n
SYMBOL Comparators\\LTC6752 1712 912 R0
WINDOW 0 16 32 Left 1
SYMATTR InstName Comp1
SYMBOL res 1456 992 R0
WINDOW 0 36 40 Left 0
SYMATTR InstName rb1
SYMATTR Value {Rbias}
SYMBOL res 1968 864 R90
WINDOW 0 0 56 VBottom 1
WINDOW 3 32 56 VTop 2
SYMATTR InstName pull_up1
SYMATTR Value 7k
SYMBOL res 1952 608 R0
WINDOW 0 36 40 Left 1
SYMATTR InstName pull_up2
SYMATTR Value 7k
SYMBOL OpAmps\\UniversalOpAmp 1152 720 R0
SYMATTR InstName U2
SYMBOL cap 1440 944 R90
WINDOW 0 0 32 VBottom 2
WINDOW 3 32 32 VTop 2
SYMATTR InstName C5
SYMATTR Value {Cbias}
TEXT -152 328 Left 2 !.tran 10 uic
TEXT 848 1248 Left 2 !.param R1=125k R2=2k R3=10k Cbias=0.1m Rbias=10k
RECTANGLE Normal 1936 640 1888 608 2
