Version 4
SHEET 1 7156 2872
WIRE -1920 -1024 -1920 -1072
WIRE -1920 -928 -1920 -944
WIRE -1744 -928 -1920 -928
WIRE -1920 -896 -1920 -928
WIRE 448 -832 -288 -832
WIRE -1696 -816 -1792 -816
WIRE -1920 -784 -1920 -816
WIRE -1792 -784 -1792 -816
WIRE -1792 -784 -1920 -784
WIRE -1920 -752 -1920 -784
WIRE -1792 -752 -1792 -784
WIRE -1696 -752 -1792 -752
WIRE -1232 -736 -1296 -736
WIRE -1008 -736 -1232 -736
WIRE -176 -720 -176 -736
WIRE -1008 -704 -1040 -704
WIRE -688 -704 -944 -704
WIRE -544 -704 -544 -736
WIRE -416 -704 -416 -736
WIRE -288 -704 -288 -832
WIRE -224 -704 -288 -704
WIRE 448 -688 32 -688
WIRE -1152 -640 -1168 -640
WIRE -1040 -640 -1040 -704
WIRE -1040 -640 -1088 -640
WIRE -976 -640 -1040 -640
WIRE -816 -640 -912 -640
WIRE 2048 -640 2048 -672
WIRE -1920 -624 -1920 -672
WIRE -1168 -624 -1168 -640
WIRE -688 -624 -688 -704
WIRE -608 -624 -688 -624
WIRE -288 -624 -288 -704
WIRE -288 -624 -352 -624
WIRE 0 -624 -176 -624
WIRE -1232 -608 -1232 -736
WIRE 0 -592 0 -624
WIRE 32 -592 32 -688
WIRE 32 -592 0 -592
WIRE 128 -592 32 -592
WIRE 288 -592 208 -592
WIRE 448 -592 288 -592
WIRE 0 -560 0 -592
WIRE 0 -560 -176 -560
WIRE 288 -544 288 -592
WIRE -608 -528 -688 -528
WIRE -288 -528 -352 -528
WIRE 1856 -512 1792 -512
WIRE 1984 -512 1920 -512
WIRE -1152 -496 -1168 -496
WIRE -1056 -496 -1088 -496
WIRE -1024 -496 -1056 -496
WIRE -896 -496 -960 -496
WIRE -816 -496 -832 -496
WIRE 2272 -496 2272 -512
WIRE -1168 -480 -1168 -496
WIRE -288 -480 -288 -528
WIRE -224 -480 -288 -480
WIRE 2048 -464 2048 -560
WIRE 2048 -464 1904 -464
WIRE -176 -432 -176 -464
WIRE 288 -432 288 -480
WIRE -544 -416 -544 -448
WIRE -416 -416 -416 -448
WIRE 1904 -416 1904 -464
WIRE -1056 -400 -1056 -496
WIRE -1008 -400 -1056 -400
WIRE 1984 -400 1984 -512
WIRE 1984 -400 1936 -400
WIRE 2016 -400 1984 -400
WIRE 2272 -400 2272 -432
WIRE 2272 -400 2096 -400
WIRE 1792 -384 1792 -512
WIRE 1792 -384 1712 -384
WIRE 1872 -384 1792 -384
WIRE -1232 -368 -1232 -544
WIRE -1008 -368 -1232 -368
WIRE -832 -368 -944 -368
WIRE -688 -368 -688 -528
WIRE -688 -368 -768 -368
WIRE 1984 -368 1936 -368
WIRE 2272 -368 2272 -400
WIRE -288 -352 -288 -480
WIRE 448 -352 -288 -352
WIRE 1904 -320 1904 -352
WIRE 1984 -288 1984 -368
WIRE 2272 -256 2272 -288
WIRE 64 -16 -992 -16
WIRE -704 48 -784 48
WIRE -576 48 -640 48
WIRE -128 80 -192 80
WIRE 64 80 64 -16
WIRE 64 80 -48 80
WIRE 144 80 64 80
WIRE -640 128 -672 128
WIRE -672 144 -672 128
WIRE -32 144 -96 144
WIRE -992 160 -992 -16
WIRE -912 160 -992 160
WIRE -784 160 -784 48
WIRE -784 160 -832 160
WIRE -704 160 -784 160
WIRE -96 160 -96 144
WIRE -32 160 -32 144
WIRE 144 160 -32 160
WIRE -576 176 -576 48
WIRE -576 176 -640 176
WIRE -496 176 -576 176
WIRE -336 176 -496 176
WIRE -192 176 -192 80
WIRE -192 176 -256 176
WIRE -128 176 -160 176
WIRE -704 192 -752 192
WIRE 64 192 64 80
WIRE 64 192 -64 192
WIRE -192 208 -192 176
WIRE -128 208 -192 208
WIRE -672 240 -672 208
WIRE -752 256 -752 192
WIRE -160 256 -160 176
WIRE -96 256 -96 224
WIRE 4496 304 4432 304
WIRE 4736 304 4560 304
WIRE -64 336 -112 336
WIRE 48 336 -64 336
WIRE 160 336 128 336
WIRE 3472 368 3472 320
WIRE 4624 368 4544 368
WIRE 4736 368 4736 304
WIRE 4736 368 4704 368
WIRE -112 400 -112 336
WIRE -496 416 -496 176
WIRE -448 416 -496 416
WIRE -352 416 -384 416
WIRE -144 416 -352 416
WIRE 160 432 160 336
WIRE 160 432 -80 432
WIRE 208 432 160 432
WIRE -144 448 -176 448
WIRE 3616 448 3616 400
WIRE -352 464 -352 416
WIRE 3472 480 3472 448
WIRE -496 496 -496 416
WIRE 4624 496 4624 480
WIRE 4320 512 4288 512
WIRE 4432 512 4432 304
WIRE 4432 512 4400 512
WIRE 4480 512 4432 512
WIRE 4544 512 4544 368
WIRE 4592 512 4544 512
WIRE -176 528 -176 448
WIRE -112 528 -112 464
WIRE 4736 528 4736 368
WIRE 4736 528 4656 528
WIRE 4864 528 4736 528
WIRE 4432 544 4432 512
WIRE 4592 544 4576 544
WIRE 5920 544 5872 544
WIRE 6064 544 6000 544
WIRE -352 560 -352 544
WIRE 3616 560 3616 528
WIRE 4576 576 4576 544
WIRE 6608 608 6320 608
WIRE 4432 640 4432 624
WIRE 4624 640 4624 560
WIRE 5632 640 5552 640
WIRE 5760 640 5712 640
WIRE 6416 672 6416 560
WIRE 5968 688 5968 672
WIRE 6320 688 6320 608
WIRE 6384 688 6320 688
WIRE 5760 704 5760 640
WIRE 5872 704 5872 544
WIRE 5872 704 5760 704
WIRE 5936 704 5872 704
WIRE 6496 704 6448 704
WIRE 6608 704 6608 608
WIRE 6608 704 6560 704
WIRE 6736 704 6608 704
WIRE 6064 720 6064 544
WIRE 6064 720 6000 720
WIRE 6192 720 6064 720
WIRE 6272 720 6272 512
WIRE 6272 720 6256 720
WIRE 6320 720 6272 720
WIRE 6384 720 6320 720
WIRE 6736 720 6736 704
WIRE 5632 736 5552 736
WIRE 5760 736 5760 704
WIRE 5760 736 5712 736
WIRE 5936 736 5904 736
WIRE 6608 736 6608 704
WIRE 6320 768 6320 720
WIRE 6416 768 6416 736
WIRE 5968 784 5968 752
WIRE 6608 832 6608 800
WIRE 6736 832 6736 800
WIRE 6880 832 6736 832
WIRE 6976 832 6880 832
WIRE 4496 864 4432 864
WIRE 4736 864 4560 864
WIRE 6736 864 6736 832
WIRE 6880 864 6880 832
WIRE 6320 880 6320 848
WIRE 4624 928 4544 928
WIRE 4736 928 4736 864
WIRE 4736 928 4704 928
WIRE 2160 960 2160 928
WIRE 6880 960 6880 928
WIRE 6736 976 6736 944
WIRE 2000 1008 2000 976
WIRE 1968 1024 1712 1024
WIRE 1296 1040 1152 1040
WIRE 2160 1040 2032 1040
WIRE 2288 1040 2160 1040
WIRE 1968 1056 1936 1056
WIRE 4624 1056 4624 1040
WIRE 1152 1072 1152 1040
WIRE 4320 1072 4288 1072
WIRE 4432 1072 4432 864
WIRE 4432 1072 4400 1072
WIRE 4480 1072 4432 1072
WIRE 4544 1072 4544 928
WIRE 4592 1072 4544 1072
WIRE 4736 1088 4736 928
WIRE 4736 1088 4656 1088
WIRE 4880 1088 4736 1088
WIRE 2000 1104 2000 1072
WIRE 2064 1104 2000 1104
WIRE 4432 1104 4432 1072
WIRE 4592 1104 4576 1104
WIRE 4576 1136 4576 1104
WIRE 1232 1184 1232 1168
WIRE 1152 1200 1152 1152
WIRE 1152 1200 1088 1200
WIRE 1200 1200 1152 1200
WIRE 4432 1200 4432 1184
WIRE 4624 1200 4624 1120
WIRE 896 1216 848 1216
WIRE 976 1216 960 1216
WIRE 992 1216 976 1216
WIRE 1088 1216 1088 1200
WIRE 1088 1216 1072 1216
WIRE 1296 1216 1296 1040
WIRE 1296 1216 1264 1216
WIRE 1360 1216 1296 1216
WIRE 1200 1232 1184 1232
WIRE 1232 1264 1232 1248
WIRE 2160 1280 2160 1248
WIRE 976 1296 976 1216
WIRE 1360 1296 976 1296
WIRE 2000 1328 2000 1296
WIRE 1968 1344 1712 1344
WIRE 1104 1360 960 1360
WIRE 2160 1360 2032 1360
WIRE 2288 1360 2160 1360
WIRE 1936 1376 1936 1056
WIRE 1968 1376 1936 1376
WIRE 960 1424 960 1360
WIRE 1008 1424 960 1424
WIRE 1104 1424 1104 1360
WIRE 1104 1424 1072 1424
WIRE 1168 1424 1104 1424
WIRE 1280 1424 1248 1424
WIRE 1360 1424 1280 1424
WIRE 2000 1424 2000 1392
WIRE 2064 1424 2000 1424
WIRE 1936 1440 1936 1376
WIRE 1936 1440 1712 1440
WIRE 1280 1456 1280 1424
WIRE 1104 1520 1104 1488
WIRE 1280 1552 1280 1520
WIRE 1312 1904 1312 1872
WIRE 2160 1968 2160 1936
WIRE 1056 1984 960 1984
WIRE 1200 1984 1056 1984
WIRE 1200 2016 1168 2016
WIRE 1312 2016 1312 1968
WIRE 1312 2016 1264 2016
WIRE 1344 2016 1312 2016
WIRE 1712 2016 1344 2016
WIRE 1872 2016 1776 2016
WIRE 2016 2016 1936 2016
WIRE 1056 2048 1056 1984
WIRE 1344 2064 1344 2016
WIRE 1344 2064 1152 2064
WIRE 1168 2112 1168 2016
WIRE 1344 2112 1168 2112
WIRE 2160 2112 2160 2064
WIRE 2320 2112 2160 2112
WIRE 2160 2144 2160 2112
WIRE 1152 2160 1152 2064
WIRE 1200 2160 1152 2160
WIRE 1056 2192 1056 2112
WIRE 1200 2192 1056 2192
WIRE 1312 2192 1264 2192
WIRE 1344 2192 1344 2112
WIRE 1344 2192 1312 2192
WIRE 1424 2192 1344 2192
WIRE 2016 2192 1488 2192
WIRE 1312 2240 1312 2192
WIRE 2160 2272 2160 2240
WIRE 1312 2320 1312 2304
WIRE 1312 2416 1312 2384
WIRE 2160 2480 2160 2448
WIRE 1056 2496 960 2496
WIRE 1200 2496 1056 2496
WIRE 1200 2528 1168 2528
WIRE 1312 2528 1312 2480
WIRE 1312 2528 1264 2528
WIRE 1344 2528 1312 2528
WIRE 1712 2528 1344 2528
WIRE 1872 2528 1776 2528
WIRE 2016 2528 1936 2528
WIRE 1056 2560 1056 2496
WIRE 1344 2576 1344 2528
WIRE 1344 2576 1152 2576
WIRE 1168 2624 1168 2528
WIRE 1344 2624 1168 2624
WIRE 2160 2624 2160 2576
WIRE 2320 2624 2160 2624
WIRE 2160 2656 2160 2624
WIRE 1152 2672 1152 2576
WIRE 1200 2672 1152 2672
WIRE 1056 2704 1056 2624
WIRE 1200 2704 1056 2704
WIRE 1312 2704 1264 2704
WIRE 1344 2704 1344 2624
WIRE 1344 2704 1312 2704
WIRE 1408 2704 1344 2704
WIRE 2016 2704 1472 2704
WIRE 1312 2752 1312 2704
WIRE 2160 2784 2160 2752
WIRE 1312 2832 1312 2816
FLAG -1920 -624 0
FLAG -1920 -1072 0
FLAG -1744 -928 VDD
IOPIN -1744 -928 In
FLAG -1696 -816 VCM
IOPIN -1696 -816 In
FLAG -1696 -752 VBIAS
IOPIN -1696 -752 In
FLAG -1168 -624 0
FLAG -1168 -480 0
FLAG -544 -416 0
FLAG -416 -416 0
FLAG -544 -736 VDD
IOPIN -544 -736 In
FLAG -416 -736 VDD
IOPIN -416 -736 In
FLAG -176 -432 0
FLAG -176 -736 VDD
IOPIN -176 -736 In
FLAG 288 -432 0
FLAG 448 -592 VOUT
IOPIN 448 -592 Out
FLAG 448 -688 VSW
IOPIN 448 -688 Out
FLAG 448 -832 GATE_P
IOPIN 448 -832 Out
FLAG 448 -352 GATE_N
IOPIN 448 -352 Out
FLAG -816 -640 GATE_N
IOPIN -816 -640 In
FLAG -816 -496 GATE_P
IOPIN -816 -496 In
FLAG -112 528 0
FLAG 208 432 PWM
IOPIN 208 432 Out
FLAG 64 80 Vsq
IOPIN 64 80 Out
FLAG -752 256 VCM
IOPIN -752 256 In
FLAG -160 256 VCM
IOPIN -160 256 In
FLAG -640 128 VDD
IOPIN -640 128 In
FLAG -32 144 VDD
IOPIN -32 144 In
FLAG -672 240 0
FLAG -96 256 0
FLAG -64 336 VDD
IOPIN -64 336 In
FLAG -1296 -736 PWM
IOPIN -1296 -736 In
FLAG -352 560 VBIAS
IOPIN -352 560 In
FLAG -176 528 VCM
IOPIN -176 528 In
FLAG 2272 -512 VOUT
IOPIN 2272 -512 In
FLAG 2272 -256 0
FLAG 1904 -320 0
FLAG 2048 -672 0
FLAG 1712 -384 VCTRL
IOPIN 1712 -384 Out
FLAG 1360 1216 Vin_a-
IOPIN 1360 1216 Out
FLAG 1360 1424 Vr_classD
IOPIN 1360 1424 Out
FLAG 848 1216 Vin_a
IOPIN 848 1216 In
FLAG 1280 1552 Vramp
IOPIN 1280 1552 In
FLAG 2064 1104 VDD
IOPIN 2064 1104 In
FLAG 2064 1424 VDD
IOPIN 2064 1424 In
FLAG 2000 1296 0
FLAG 2000 976 0
FLAG 2160 928 VDD
IOPIN 2160 928 In
FLAG 2160 1248 VDD
IOPIN 2160 1248 In
FLAG 1712 1024 Vin_a-
IOPIN 1712 1024 In
FLAG 1712 1344 Vin_a+
IOPIN 1712 1344 In
FLAG 1712 1440 Vramp
IOPIN 1712 1440 In
FLAG 2288 1040 VPWM_P
IOPIN 2288 1040 Out
FLAG 2288 1360 VPWM_N
IOPIN 2288 1360 Out
FLAG 1232 1168 VDD
IOPIN 1232 1168 In
FLAG 1232 1264 0
FLAG 1184 1232 VCM
IOPIN 1184 1232 In
FLAG 1104 1520 0
FLAG 1360 1296 Vin_a+
IOPIN 1360 1296 Out
FLAG 1312 2320 0
FLAG 1312 1872 0
FLAG 960 1984 VPWM_N
IOPIN 960 1984 In
FLAG 1312 2832 0
FLAG 1312 2384 0
FLAG 960 2496 VPWM_P
IOPIN 960 2496 In
FLAG 2160 2448 VDD
IOPIN 2160 2448 In
FLAG 2160 1936 VDD
IOPIN 2160 1936 In
FLAG 2160 2272 0
FLAG 2160 2784 0
FLAG 4432 640 0
FLAG 4624 640 VSS
IOPIN 4624 640 In
FLAG 4624 480 VDD
IOPIN 4624 480 In
FLAG 4288 512 Vin_audio
IOPIN 4288 512 In
FLAG 4432 1200 0
FLAG 4624 1200 VSS
IOPIN 4624 1200 In
FLAG 4624 1040 VDD
IOPIN 4624 1040 In
FLAG 4288 1072 Vin_audio
IOPIN 4288 1072 In
FLAG 4880 1088 VBPF2
IOPIN 4880 1088 Out
FLAG 4864 528 VBPF1
IOPIN 4864 528 Out
FLAG 4576 576 VCM
IOPIN 4576 576 In
FLAG 4576 1136 VCM
IOPIN 4576 1136 In
FLAG 3616 560 0
FLAG 3616 400 Vin_audio
IOPIN 3616 400 Out
FLAG 6416 768 0
FLAG 6416 560 VDD
IOPIN 6416 560 In
FLAG 6608 832 0
FLAG 6736 976 0
FLAG 6880 960 0
FLAG 6320 880 0
FLAG 5968 672 VDD
IOPIN 5968 672 In
FLAG 5968 784 0
FLAG 5904 736 VCM
IOPIN 5904 736 In
FLAG 5552 640 VBPF1
IOPIN 5552 640 In
FLAG 5552 736 VBPF2
IOPIN 5552 736 In
FLAG 6976 832 Vref
IOPIN 6976 832 Out
FLAG -496 496 Vramp
IOPIN -496 496 Out
FLAG 1984 -288 Vref
IOPIN 1984 -288 In
FLAG 3472 320 0
FLAG 3472 480 VSS
IOPIN 3472 480 Out
FLAG 6272 512 Vin_a
IOPIN 6272 512 Out
DATAFLAG -496 176 ""
SYMBOL res -1936 -912 R0
SYMATTR InstName R1
SYMATTR Value 1k
SYMBOL res -1936 -768 R0
SYMATTR InstName R2
SYMATTR Value 1k
SYMBOL voltage -1920 -928 R180
WINDOW 0 24 96 Left 2
WINDOW 3 24 16 Left 2
WINDOW 123 0 0 Left 0
WINDOW 39 0 0 Left 0
SYMATTR InstName V1
SYMATTR Value 5
SYMBOL Digital\\and -976 -784 R0
SYMATTR InstName A1
SYMATTR SpiceLine Vhigh=5 Vlow=0 ref=2.5
SYMBOL Digital\\inv -1168 -608 R90
SYMATTR InstName A2
SYMATTR SpiceLine Vhigh=5 Vlow=0 ref=2.5
SYMBOL Digital\\and -976 -448 R0
SYMATTR InstName A3
SYMATTR SpiceLine Vhigh=5 Vlow=0 ref=2.5
SYMBOL cap -1088 -656 R90
WINDOW 0 0 32 VBottom 2
WINDOW 3 32 32 VTop 2
SYMATTR InstName C1
SYMATTR Value 1n
SYMBOL cap -1088 -512 R90
WINDOW 0 0 32 VBottom 2
WINDOW 3 32 32 VTop 2
SYMATTR InstName C2
SYMATTR Value 1n
SYMBOL Digital\\inv -912 -576 R180
SYMATTR InstName A4
SYMATTR SpiceLine Vhigh=5 Vlow=0 ref=2.5
SYMBOL Digital\\inv -960 -432 R180
SYMATTR InstName A5
SYMATTR SpiceLine Vhigh=5 Vlow=0 ref=2.5
SYMBOL Digital\\inv -832 -432 R180
SYMATTR InstName A6
SYMATTR SpiceLine Vhigh=5 Vlow=0 ref=2.5
SYMBOL Digital\\inv -832 -432 R0
SYMATTR InstName A7
SYMATTR SpiceLine Vhigh=5 Vlow=0 ref=2.5
SYMBOL PowerProducts\\LTC1693-1 -480 -576 R0
SYMATTR InstName U1
SYMBOL nmos -224 -560 R0
SYMATTR InstName M1
SYMATTR Value AO6408
SYMBOL pmos -224 -624 M180
SYMATTR InstName M2
SYMATTR Value AO6407
SYMBOL ind 112 -576 R270
WINDOW 0 32 56 VTop 2
WINDOW 3 5 56 VBottom 2
SYMATTR InstName L1
SYMATTR Value 100µ
SYMBOL cap 272 -544 R0
SYMATTR InstName C3
SYMATTR Value 4700µ
SYMBOL Comparators\\LTC6752 -96 128 R0
WINDOW 0 16 32 Left 1
SYMATTR InstName ST1
SYMBOL res -32 64 R90
WINDOW 0 0 56 VBottom 0
WINDOW 3 32 56 VTop 2
SYMATTR InstName r3
SYMATTR Value {R3}
SYMBOL res -240 160 R90
WINDOW 0 0 56 VBottom 0
WINDOW 3 32 56 VTop 2
SYMATTR InstName r4
SYMATTR Value {R2}
SYMBOL res -816 144 R90
WINDOW 0 0 56 VBottom 0
WINDOW 3 32 56 VTop 2
SYMATTR InstName r5
SYMATTR Value {R1}
SYMBOL cap -640 32 R90
WINDOW 0 0 32 VBottom 0
WINDOW 3 32 32 VTop 2
SYMATTR InstName c4
SYMATTR Value 0.1n
SYMBOL Comparators\\LTC6752 -112 368 R0
WINDOW 0 16 32 Left 1
SYMATTR InstName Comp1
SYMBOL res -368 448 R0
WINDOW 0 36 40 Left 0
SYMATTR InstName rb1
SYMATTR Value {Rbias}
SYMBOL res 144 320 R90
WINDOW 0 0 56 VBottom 1
WINDOW 3 32 56 VTop 2
SYMATTR InstName pull_up1
SYMATTR Value 7k
SYMBOL res 128 64 R0
WINDOW 0 36 40 Left 1
SYMATTR InstName pull_up2
SYMATTR Value 7k
SYMBOL OpAmps\\UniversalOpAmp -672 176 R0
SYMATTR InstName U2
SYMBOL cap -384 400 R90
WINDOW 0 0 32 VBottom 2
WINDOW 3 32 32 VTop 2
SYMATTR InstName C5
SYMATTR Value {Cbias}
SYMBOL res 2256 -384 R0
SYMATTR InstName R6
SYMATTR Value 5
SYMBOL OpAmps\\UniversalOpAmp1 1904 -384 M0
SYMATTR InstName U3
SYMBOL res 2112 -416 R90
WINDOW 0 0 56 VBottom 2
WINDOW 3 32 56 VTop 2
SYMATTR InstName R7
SYMATTR Value 10k
SYMBOL cap 1920 -528 R90
WINDOW 0 0 32 VBottom 2
WINDOW 3 32 32 VTop 2
SYMATTR InstName C6
SYMATTR Value 47n
SYMBOL voltage 2048 -544 R180
WINDOW 0 24 96 Left 2
WINDOW 3 24 16 Left 2
WINDOW 123 0 0 Left 0
WINDOW 39 0 0 Left 0
SYMATTR InstName V3
SYMATTR Value 5
SYMBOL LED 2256 -496 R0
SYMATTR InstName D1
SYMBOL res 1264 1408 R90
WINDOW 0 0 56 VBottom 2
WINDOW 3 32 56 VTop 2
SYMATTR InstName R8
SYMATTR Value 10k
SYMBOL cap 1264 1456 R0
SYMATTR InstName C7
SYMATTR Value 10n
SYMBOL cap 1088 1424 R0
SYMATTR InstName C8
SYMATTR Value 10n
SYMBOL Comparators\\LTC6752 2000 1104 M180
SYMATTR InstName U4
SYMBOL Comparators\\LTC6752 2000 1424 M180
SYMATTR InstName U5
SYMBOL res 2144 1264 R0
SYMATTR InstName R9
SYMATTR Value 4.7k
SYMBOL res 2144 944 R0
SYMATTR InstName R10
SYMATTR Value 4.7k
SYMBOL res 1088 1200 R90
WINDOW 0 0 56 VBottom 2
WINDOW 3 32 56 VTop 2
SYMATTR InstName R13
SYMATTR Value 2k
SYMBOL res 1168 1168 R180
WINDOW 0 36 76 Left 2
WINDOW 3 36 40 Left 2
SYMATTR InstName R14
SYMATTR Value 2k
SYMBOL cap 960 1200 R90
WINDOW 0 0 32 VBottom 2
WINDOW 3 32 32 VTop 2
SYMATTR InstName C9
SYMATTR Value 1µ
SYMBOL OpAmps\\UniversalOpAmp1 1232 1216 R0
SYMATTR InstName U6
SYMBOL Digital\\and 1232 1936 R0
SYMATTR InstName A8
SYMATTR SpiceLine Vhigh=5 Vlow=0 ref=2.5
SYMBOL Digital\\and 1232 2112 R0
SYMATTR InstName A9
SYMATTR SpiceLine Vhigh=5 Vlow=0 ref=2.5
SYMBOL Digital\\inv 1120 2048 R90
SYMATTR InstName A10
SYMATTR SpiceLine Vhigh=5 Vlow=0 ref=2.5
SYMBOL cap 1296 1904 R0
SYMATTR InstName C10
SYMATTR Value 10p
SYMBOL cap 1296 2240 R0
SYMATTR InstName C11
SYMATTR Value 10p
SYMBOL Digital\\inv 1712 1952 R0
SYMATTR InstName A11
SYMATTR SpiceLine Vhigh=5 Vlow=0 ref=2.5
SYMBOL Digital\\inv 1872 1952 R0
SYMATTR InstName A12
SYMATTR SpiceLine Vhigh=5 Vlow=0 ref=2.5
SYMBOL res 2112 2000 R90
WINDOW 0 0 56 VBottom 2
WINDOW 3 32 56 VTop 2
SYMATTR InstName R15
SYMATTR Value 200
SYMBOL res 2112 2176 R90
WINDOW 0 0 56 VBottom 2
WINDOW 3 32 56 VTop 2
SYMATTR InstName R16
SYMATTR Value 200
SYMBOL npn 2096 2144 R0
SYMATTR InstName Q1
SYMBOL pnp 2096 2064 M180
SYMATTR InstName Q2
SYMBOL Digital\\and 1232 2448 R0
SYMATTR InstName A13
SYMATTR SpiceLine Vhigh=5 Vlow=0 ref=2.5
SYMBOL Digital\\and 1232 2624 R0
SYMATTR InstName A14
SYMATTR SpiceLine Vhigh=5 Vlow=0 ref=2.5
SYMBOL Digital\\inv 1120 2560 R90
SYMATTR InstName A15
SYMATTR SpiceLine Vhigh=5 Vlow=0 ref=2.5
SYMBOL cap 1296 2416 R0
SYMATTR InstName C12
SYMATTR Value 10p
SYMBOL cap 1296 2752 R0
SYMATTR InstName C13
SYMATTR Value 10p
SYMBOL Digital\\inv 1712 2464 R0
SYMATTR InstName A16
SYMATTR SpiceLine Vhigh=5 Vlow=0 ref=2.5
SYMBOL Digital\\inv 1872 2464 R0
SYMATTR InstName A17
SYMATTR SpiceLine Vhigh=5 Vlow=0 ref=2.5
SYMBOL res 2112 2512 R90
WINDOW 0 0 56 VBottom 2
WINDOW 3 32 56 VTop 2
SYMATTR InstName R17
SYMATTR Value 200
SYMBOL res 2112 2688 R90
WINDOW 0 0 56 VBottom 2
WINDOW 3 32 56 VTop 2
SYMATTR InstName R18
SYMATTR Value 200
SYMBOL npn 2096 2656 R0
SYMATTR InstName Q3
SYMBOL pnp 2096 2576 M180
SYMATTR InstName Q4
SYMBOL Digital\\inv 1424 2128 R0
SYMATTR InstName A18
SYMATTR SpiceLine Vhigh=5 Vlow=0 ref=2.5
SYMBOL Digital\\inv 1408 2640 R0
SYMATTR InstName A19
SYMATTR SpiceLine Vhigh=5 Vlow=0 ref=2.5
SYMBOL res 4416 496 R90
WINDOW 0 0 56 VBottom 1
WINDOW 3 32 56 VTop 0
SYMATTR InstName R19
SYMATTR Value {10/denom1}
SYMBOL res 4416 528 R0
WINDOW 0 36 40 Left 1
WINDOW 3 36 76 Left 0
SYMATTR InstName R20
SYMATTR Value {1/(19.9*denom1)}
SYMBOL res 4608 384 R270
WINDOW 0 32 56 VTop 1
WINDOW 3 0 56 VBottom 0
SYMATTR InstName R21
SYMATTR Value {20/denom1}
SYMBOL cap 4560 288 R90
WINDOW 0 0 32 VBottom 1
WINDOW 3 32 32 VTop 0
SYMATTR InstName C14
SYMATTR Value 10n
SYMBOL cap 4544 496 R90
WINDOW 0 0 32 VBottom 1
WINDOW 3 32 32 VTop 0
SYMATTR InstName C15
SYMATTR Value 10n
SYMBOL res 4416 1056 R90
WINDOW 0 0 56 VBottom 1
WINDOW 3 32 56 VTop 0
SYMATTR InstName R22
SYMATTR Value {10/denom2}
SYMBOL res 4416 1088 R0
WINDOW 0 36 40 Left 1
WINDOW 3 36 76 Left 0
SYMATTR InstName R23
SYMATTR Value {1/(19.9*denom2)}
SYMBOL res 4608 944 R270
WINDOW 0 32 56 VTop 1
WINDOW 3 0 56 VBottom 0
SYMATTR InstName R24
SYMATTR Value {20/denom2}
SYMBOL cap 4560 848 R90
WINDOW 0 0 32 VBottom 1
WINDOW 3 32 32 VTop 0
SYMATTR InstName C16
SYMATTR Value 10n
SYMBOL cap 4544 1056 R90
WINDOW 0 0 32 VBottom 1
WINDOW 3 32 32 VTop 0
SYMATTR InstName C17
SYMATTR Value 10n
SYMBOL OpAmps\\UniversalOpAmp1 4624 528 R0
SYMATTR InstName U7
SYMBOL OpAmps\\UniversalOpAmp1 4624 1088 R0
SYMATTR InstName U8
SYMBOL voltage 3616 432 R0
WINDOW 123 0 0 Left 0
WINDOW 39 0 0 Left 0
SYMATTR InstName V9
SYMATTR Value SINE(0 0.45 1k)
SYMBOL diode 6496 720 R270
WINDOW 0 32 32 VTop 2
WINDOW 3 0 32 VBottom 2
SYMATTR InstName D2
SYMBOL cap 6592 736 R0
SYMATTR InstName C18
SYMATTR Value 100n
SYMBOL res 6720 704 R0
SYMATTR InstName R25
SYMATTR Value 16k
SYMBOL res 6720 848 R0
SYMATTR InstName R26
SYMATTR Value 28k
SYMBOL cap 6864 864 R0
SYMATTR InstName C19
SYMATTR Value 1µ
SYMBOL OpAmps\\UniversalOpAmp2 6416 704 R0
SYMATTR InstName U9
SYMBOL OpAmps\\UniversalOpAmp 5968 720 R0
SYMATTR InstName U10
SYMBOL cap 6256 704 R90
WINDOW 0 0 32 VBottom 2
WINDOW 3 32 32 VTop 2
SYMATTR InstName C20
SYMATTR Value 100n
SYMBOL res 6304 752 R0
SYMATTR InstName R27
SYMATTR Value 100k
SYMBOL res 6016 528 R90
WINDOW 0 0 56 VBottom 2
WINDOW 3 32 56 VTop 2
SYMATTR InstName R28
SYMATTR Value 100k
SYMBOL res 5728 624 R90
WINDOW 0 0 56 VBottom 2
WINDOW 3 32 56 VTop 2
SYMATTR InstName R29
SYMATTR Value 100k
SYMBOL res 5728 720 R90
WINDOW 0 0 56 VBottom 2
WINDOW 3 32 56 VTop 2
SYMATTR InstName R30
SYMATTR Value 100k
SYMBOL voltage 3472 352 R0
WINDOW 123 0 0 Left 0
WINDOW 39 0 0 Left 0
SYMATTR InstName V2
SYMATTR Value 5
TEXT -976 704 Left 2 !.param R1=125k R2=2k R3=10k Cbias=0.1m Rbias=10k
TEXT 800 976 Left 3 ;Single ended to differential converter
TEXT 1912 800 Left 3 ;PWM Modulator
TEXT 3696 1088 Left 2 !.param C 10n\n.param fo1 1k\n.param fo2 3k\n.param denom1 2*Pi*fo1*C\n.param denom2 2*Pi*fo2*C
TEXT 3704 1056 Left 2 ;Parameters
TEXT 6288 1136 Center 5 ;Experiment 7
TEXT 4536 1392 Center 5 ;Experiment 6
TEXT -1976 2856 Left 2 !.tran 0 1 0 0.001 startup
RECTANGLE Normal 112 96 64 64 2
RECTANGLE Normal 2256 1488 1792 832 2
RECTANGLE Normal 1344 1552 864 1024 2
RECTANGLE Normal 1584 2352 704 1760 2
RECTANGLE Normal 5104 1328 4080 208 2
RECTANGLE Normal 7152 1088 5376 416 2
